Version 4
SHEET 1 1836 680
WIRE 544 -208 -16 -208
WIRE -16 -160 -16 -208
WIRE 544 -112 544 -208
WIRE 832 -112 544 -112
WIRE 1232 -112 832 -112
WIRE 1296 -112 1232 -112
WIRE 832 -48 832 -112
WIRE 1232 -48 1232 -112
WIRE -16 16 -16 -80
WIRE -16 16 -128 16
WIRE -128 48 -128 16
WIRE 1296 64 1296 -112
WIRE 1024 80 928 80
WIRE -16 128 -16 16
WIRE 64 128 -16 128
WIRE 192 128 144 128
WIRE 240 128 192 128
WIRE 352 128 320 128
WIRE 704 128 352 128
WIRE 832 128 832 32
WIRE 832 128 784 128
WIRE 928 128 928 80
WIRE 928 128 832 128
WIRE 1232 128 1232 16
WIRE 1232 128 928 128
WIRE -128 160 -128 128
WIRE -16 160 -16 128
WIRE 192 176 192 128
WIRE 352 176 352 128
WIRE 1232 176 1232 128
WIRE -128 288 -128 240
WIRE -16 288 -16 240
WIRE -16 288 -128 288
WIRE 96 288 -16 288
WIRE 192 288 192 240
WIRE 192 288 96 288
WIRE 352 288 352 240
WIRE 352 288 192 288
WIRE 1232 288 1232 240
WIRE 1232 288 352 288
WIRE 1296 288 1296 144
WIRE 1296 288 1232 288
WIRE 96 320 96 288
FLAG 96 320 0
FLAG 1024 80 VOUT2
IOPIN 1024 80 Out
SYMBOL voltage -128 144 R0
WINDOW 3 24 96 Invisible 2
WINDOW 39 24 152 Left 2
SYMATTR Value PULSE(-4.5 +4.5 30nS 1nS 1nS 100nS 200nS 3)
SYMATTR SpiceLine Rser=0
SYMATTR InstName V1
SYMATTR Value2 AC 1 0
SYMBOL ind 336 112 R90
WINDOW 0 5 56 VBottom 2
WINDOW 3 32 56 VTop 2
SYMATTR InstName L2
SYMATTR Value 1.5µ
SYMBOL cap 176 176 R0
SYMATTR InstName C1
SYMATTR Value 560p
SYMBOL cap 336 176 R0
SYMATTR InstName C2
SYMATTR Value 240p
SYMBOL res 816 -64 R0
SYMATTR InstName R6
SYMATTR Value 4K7
SYMBOL voltage 1296 48 R0
WINDOW 123 0 0 Left 0
WINDOW 39 24 124 Left 2
SYMATTR SpiceLine Rser=0
SYMATTR InstName V2
SYMATTR Value 3.3
SYMBOL ind 48 144 R270
WINDOW 0 32 56 VTop 2
WINDOW 3 5 56 VBottom 2
SYMATTR InstName L1
SYMATTR Value 620n
SYMBOL res -144 32 R0
SYMATTR InstName R8
SYMATTR Value 50
SYMBOL res -32 144 R0
SYMATTR InstName R9
SYMATTR Value 100
SYMBOL res -32 -176 R0
SYMATTR InstName R16
SYMATTR Value 100
SYMBOL res 800 112 R90
WINDOW 0 0 56 VBottom 2
WINDOW 3 32 56 VTop 2
SYMATTR InstName R2
SYMATTR Value 2K2
SYMBOL schottky 1248 16 R180
WINDOW 0 34 53 Left 2
WINDOW 3 24 0 Left 2
SYMATTR InstName D3
SYMATTR Value BAT54
SYMATTR Description Diode
SYMATTR Type diode
SYMBOL schottky 1248 240 R180
WINDOW 0 24 64 Left 2
WINDOW 3 24 0 Left 2
SYMATTR InstName D2
SYMATTR Value BAT54
SYMATTR Description Diode
SYMATTR Type diode
TEXT -64 360 Left 2 !.tran 0 1e-6 0 1e-9
TEXT -352 264 Left 2 !;ac oct 100 1 2e6
