Version 4
SHEET 1 1836 680
WIRE 912 -400 384 -400
WIRE 848 -368 576 -368
WIRE 1552 -368 960 -368
WIRE 832 -336 656 -336
WIRE 912 -336 912 -400
WIRE 912 -336 832 -336
WIRE 944 -336 912 -336
WIRE 1088 -336 944 -336
WIRE 1296 -336 1088 -336
WIRE 576 -288 576 -368
WIRE 624 -288 576 -288
WIRE 848 -256 848 -368
WIRE 848 -256 768 -256
WIRE 1488 -256 848 -256
WIRE 624 -224 592 -224
WIRE -16 -208 -80 -208
WIRE 384 -208 384 -400
WIRE 384 -208 -16 -208
WIRE 448 -208 384 -208
WIRE 544 -208 448 -208
WIRE -16 -160 -16 -208
WIRE 448 -160 448 -208
WIRE 960 -160 960 -368
WIRE 992 -160 960 -160
WIRE 1040 -160 992 -160
WIRE -80 -144 -80 -208
WIRE 944 -112 944 -336
WIRE 992 -112 992 -160
WIRE 1040 -112 1040 -160
WIRE 1088 -112 1088 -336
WIRE 832 -48 832 -336
WIRE 912 -16 880 -16
WIRE 1184 -16 1184 -192
WIRE 1184 -16 1168 -16
WIRE -352 16 -464 16
WIRE -224 16 -272 16
WIRE -80 16 -80 -80
WIRE -80 16 -224 16
WIRE -16 16 -16 -80
WIRE -16 16 -80 16
WIRE 448 48 448 -80
WIRE 592 48 592 -224
WIRE 592 48 448 48
WIRE 1296 64 1296 -336
WIRE -464 96 -464 80
WIRE -224 96 -224 16
WIRE 832 96 832 32
WIRE 832 96 720 96
WIRE -16 128 -16 16
WIRE 64 128 -16 128
WIRE 192 128 144 128
WIRE 240 128 192 128
WIRE 352 128 320 128
WIRE 720 128 720 96
WIRE 720 128 352 128
WIRE 832 128 832 96
WIRE 880 128 880 -16
WIRE 880 128 832 128
WIRE -16 160 -16 128
WIRE 192 176 192 128
WIRE 352 176 352 128
WIRE 448 176 448 48
WIRE 464 176 448 176
WIRE 832 176 832 128
WIRE 976 240 976 80
WIRE 1488 240 1488 -256
WIRE 1488 240 976 240
WIRE -464 288 -464 176
WIRE -224 288 -224 160
WIRE -224 288 -464 288
WIRE -128 288 -128 240
WIRE -128 288 -224 288
WIRE -16 288 -16 240
WIRE -16 288 -128 288
WIRE 96 288 -16 288
WIRE 192 288 192 240
WIRE 192 288 96 288
WIRE 352 288 352 240
WIRE 352 288 192 288
WIRE 464 288 464 256
WIRE 464 288 352 288
WIRE 656 288 656 -176
WIRE 656 288 464 288
WIRE 832 288 832 256
WIRE 832 288 656 288
WIRE 1088 288 1088 80
WIRE 1088 288 832 288
WIRE 1296 288 1296 144
WIRE 1296 288 1088 288
WIRE 1552 288 1552 -368
WIRE 1552 288 1296 288
WIRE 96 320 96 288
FLAG 96 320 0
FLAG 1184 -192 OUT
SYMBOL voltage -464 80 R0
WINDOW 3 24 96 Invisible 2
WINDOW 39 24 152 Left 2
SYMATTR Value PULSE(-3 +3 30nS 1nS 1nS 100nS 200nS 4)
SYMATTR SpiceLine Rser=0
SYMATTR InstName V1
SYMATTR Value2 AC 1 0
SYMBOL ind 336 112 R90
WINDOW 0 5 56 VBottom 2
WINDOW 3 32 56 VTop 2
SYMATTR InstName L2
SYMATTR Value 1.5µ
SYMBOL cap 176 176 R0
SYMATTR InstName C1
SYMATTR Value 560p
SYMBOL cap 336 176 R0
SYMATTR InstName C2
SYMATTR Value 240p
SYMBOL res 816 -64 R0
SYMATTR InstName R6
SYMATTR Value 100
SYMBOL voltage 1296 48 R0
WINDOW 123 0 0 Left 0
WINDOW 39 24 124 Left 2
SYMATTR SpiceLine Rser=0
SYMATTR InstName V2
SYMATTR Value 3.3
SYMBOL ind 48 144 R270
WINDOW 0 32 56 VTop 2
WINDOW 3 5 56 VBottom 2
SYMATTR InstName L1
SYMATTR Value 620n
SYMBOL res -256 0 R90
WINDOW 0 0 56 VBottom 2
WINDOW 3 32 56 VTop 2
SYMATTR InstName R8
SYMATTR Value 50
SYMBOL res -32 144 R0
SYMATTR InstName R9
SYMATTR Value 100
SYMBOL res -32 -176 R0
SYMATTR InstName R16
SYMATTR Value 100
SYMBOL schottky -64 -80 R180
WINDOW 0 34 53 Left 2
WINDOW 3 24 0 Left 2
SYMATTR InstName D3
SYMATTR Value BAT54
SYMATTR Description Diode
SYMATTR Type diode
SYMBOL schottky -208 160 R180
WINDOW 0 24 64 Left 2
WINDOW 3 24 0 Left 2
SYMATTR InstName D2
SYMATTR Value BAT54
SYMATTR Description Diode
SYMATTR Type diode
SYMBOL Opamps\\LTC6261 656 -256 R0
SYMATTR InstName U2
SYMBOL res 432 -176 R0
SYMATTR InstName R1
SYMATTR Value 4K7
SYMBOL res 448 160 R0
SYMATTR InstName R3
SYMATTR Value 4K7
SYMBOL Opamps\\LTC6910-2 1024 -16 R0
WINDOW 3 27 16 Center 2
SYMATTR InstName U1
SYMBOL cap -480 16 R0
SYMATTR InstName C3
SYMATTR Value 47n
SYMBOL res 816 160 R0
SYMATTR InstName R4
SYMATTR Value 100
TEXT -64 360 Left 2 !.tran 0 2e-6 0 1e-9
TEXT -352 264 Left 2 !;ac dec 100 1 10e6
TEXT -498 380 Left 2 !;tran 0 5e-6 0 1e-9
